LTspice 26.0.1 for Windows
Circuit: C:\Users\soysa\Downloads\Draft7.net
Start Time: Wed May 13 11:39:41 2026
solver = Normal
Maximum thread count: 12
tnom = 27
temp = 27
method = trap
Compress1stOrder = true
Compress2ndOrder = true
.OP point found by inspection.
.OP point found by inspection.
Total elapsed time: 0.085 seconds.

Files loaded:
C:\Users\soysa\Downloads\Draft7.net

